
OS:Version,
  {ef34d883-794d-40bd-8d95-8b3e4b8f1692}, !- Handle
  3.11.0;                                 !- Version Identifier

OS:OutputControl:Files,
  {d9923593-115e-40b5-b52a-4bf3cd160212}, !- Handle
  No,                                     !- Output CSV
  Yes,                                    !- Output MTR
  Yes,                                    !- Output ESO
  Yes,                                    !- Output EIO
  Yes,                                    !- Output Tabular
  Yes,                                    !- Output SQLite
  Yes,                                    !- Output JSON
  Yes,                                    !- Output AUDIT
  Yes,                                    !- Output Space Sizing
  Yes,                                    !- Output Zone Sizing
  Yes,                                    !- Output System Sizing
  Yes,                                    !- Output DXF
  Yes,                                    !- Output BND
  Yes,                                    !- Output RDD
  Yes,                                    !- Output MDD
  Yes,                                    !- Output MTD
  Yes,                                    !- Output SHD
  Yes,                                    !- Output DFS
  Yes,                                    !- Output GLHE
  Yes,                                    !- Output DelightIn
  Yes,                                    !- Output DelightELdmp
  Yes,                                    !- Output DelightDFdmp
  Yes,                                    !- Output EDD
  Yes,                                    !- Output DBG
  Yes,                                    !- Output PerfLog
  Yes,                                    !- Output SLN
  Yes,                                    !- Output SCI
  Yes,                                    !- Output WRL
  Yes,                                    !- Output Screen
  Yes,                                    !- Output ExtShd
  Yes,                                    !- Output Tarcog
  Yes;                                    !- Output Plant Component Sizing
